[General]
network = Network
experiment-label = ${configname}
sim-time-limit = 120s

record-eventlog = true
**.scalar-recording = true
**.vector-recording = true
output-vector-file = ${resultdir}/config1-v.vec
output-scalar-file = ${resultdir}/config1-run.sca

***.queueType = "DropTailQueue" # in routers
***.queue.frameCapacity = 200



**.cl1[*].numPingApps = 1
**.cl1[*].pingApp[*].typename = "PingApp"
**.cl1[*].pingApp[*].destAddr = "srv1"
**.cl1[*].pingApp[*].count = 50
**.cl1[*].pingApp[*].startTime = 0s
**.cl1[*].pingApp[*].sleepDuration = 0s

**.cl2[*].numPingApps = 1
**.cl2[*].pingApp[*].typename = "PingApp"
**.cl2[*].pingApp[*].destAddr = "srv1"
**.cl2[*].pingApp[*].count = 50
**.cl2[*].pingApp[*].startTime = 0s
**.cl2[*].pingApp[*].sleepDuration = 0s

**.cl3[*].numPingApps = 1
**.cl3[*].pingApp[*].typename = "PingApp"
**.cl3[*].pingApp[*].destAddr = "srv1"
**.cl3[*].pingApp[*].count = 50
**.cl3[*].pingApp[*].startTime = 0s
**.cl3[*].pingApp[*].sleepDuration = 0s

**.cl4[*].numPingApps = 1
**.cl4[*].pingApp[*].typename = "PingApp"
**.cl4[*].pingApp[*].destAddr = "srv1"
**.cl4[*].pingApp[*].count = 50
**.cl4[*].pingApp[*].startTime = 0s
**.cl4[*].pingApp[*].sleepDuration = 0s

**.cl5[*].numPingApps = 1
**.cl5[*].pingApp[*].typename = "PingApp"
**.cl5[*].pingApp[*].destAddr = "srv1"
**.cl5[*].pingApp[*].count = 50
**.cl5[*].pingApp[*].startTime = 0s
**.cl5[*].pingApp[*].sleepDuration = 0s



[Config average]
**.n = 35
output-vector-file = ${resultdir}/average-v.vec
output-scalar-file = ${resultdir}/average-run.sca

[Config low]
**.n = 15
output-vector-file = ${resultdir}/low-v.vec
output-scalar-file = ${resultdir}/low-run.sca

[Config high]
**.n = 150
output-vector-file = ${resultdir}/high-v.vec
output-scalar-file = ${resultdir}/high-run.sca
